Hello World
new line...
new line...
new line...